
 OpenBabel10081014173D

 17 16  0  0  0  0  0  0  0  0999 V2000
   -1.3050    0.7801   -0.0980 C   0  0  0  0  0
    0.2195    0.7216    0.0090 C   0  0  0  0  0
   -1.8784    2.2120   -0.0956 C   0  0  0  0  0
   -1.9481   -0.0744    0.9999 C   0  0  0  0  0
   -1.7755    0.2148   -1.4532 C   0  0  0  0  0
    0.6406    1.2550    1.1820 Cl  0  0  0  0  0
    1.0924    1.5551   -1.3035 F   0  0  0  0  0
    0.5861   -0.3081    0.0056 H   0  0  0  0  0
   -1.2981    3.3539    1.1371 Cl  0  0  0  0  0
   -2.9692    2.1899    0.0019 H   0  0  0  0  0
   -1.6159    2.8020   -1.2964 F   0  0  0  0  0
   -1.4672    0.8282   -2.3048 H   0  0  0  0  0
   -3.1397    0.1990   -1.4573 F   0  0  0  0  0
   -1.1467   -1.5637   -1.9430 Br  0  0  0  0  0
   -1.7680    0.5025    2.8472 Br  0  0  0  0  0
   -1.4402   -1.3341    0.9468 F   0  0  0  0  0
   -3.0312   -0.1578    0.8614 H   0  0  0  0  0
  1  2  1  0  0  0
  1  3  1  0  0  0
  1  4  1  0  0  0
  1  5  1  0  0  0
  2  6  1  0  0  0
  2  7  1  0  0  0
  2  8  1  0  0  0
  3  9  1  0  0  0
  3 10  1  0  0  0
  3 11  1  0  0  0
  4 15  1  0  0  0
  4 16  1  0  0  0
  4 17  1  0  0  0
  5 12  1  0  0  0
  5 13  1  0  0  0
  5 14  1  0  0  0
M  END
